# Layers parameters.
 &LAYERS_PARM01
  useBOLUS=.TRUE.,
  layers_G=31.000, 31.025, 31.050, 31.075, 31.100, 31.125, 31.150, 31.175,
           31.200, 31.225, 31.250, 31.275, 31.300, 31.325, 31.350, 31.375,
           31.400, 31.425, 31.450, 31.475, 31.500, 31.525, 31.550, 31.575,
           31.600, 31.625, 31.650, 31.675, 31.700, 31.725, 31.750, 31.775,
           31.800, 31.825, 31.850, 31.875, 31.900, 31.925, 31.950, 31.975,
           32.000, 32.025, 32.050, 32.075, 32.100, 32.125, 32.150, 32.175,
           32.200, 32.225, 32.250, 32.275, 32.300, 32.325, 32.350, 32.375,
           32.400, 32.425, 32.450, 32.475, 32.500, 32.525, 32.550, 32.575,
           32.600, 32.625, 32.650, 32.675, 32.700, 32.725, 32.750, 32.775,
           32.800, 32.825, 32.850, 32.875, 32.900, 32.925, 32.950, 32.975,
           33.000, 33.025, 33.050, 33.075, 33.100, 33.125, 33.150, 33.175,
           33.200, 33.225, 33.250, 33.275, 33.300, 33.325, 33.350, 33.375,
           33.400, 33.425, 33.450, 33.475, 33.500, 33.525, 33.550, 33.575,
           33.600, 33.625, 33.650, 33.675, 33.700, 33.725, 33.750, 33.775,
           33.800, 33.825, 33.850, 33.875, 33.900, 33.925, 33.950, 33.975,
           34.000, 34.025, 34.050, 34.075, 34.100, 34.125, 34.150, 34.175,
           34.200, 34.225, 34.250, 34.275, 34.300, 34.325, 34.350, 34.375,
           34.400, 34.425, 34.450, 34.475, 34.500, 34.525, 34.550, 34.575,
           34.600, 34.625, 34.650, 34.675, 34.700, 34.725, 34.750, 34.775,
           34.800, 34.825, 34.850, 34.875, 34.900, 34.925, 34.950, 34.975,
           35.000, 35.025, 35.050, 35.075, 35.100, 35.125, 35.150, 35.175,
           35.200, 35.225, 35.250, 35.275, 35.300, 35.325, 35.350, 35.375,
           35.400, 35.425, 35.450, 35.475, 35.500, 35.525, 35.550, 35.575,
           35.600, 35.625, 35.650, 35.675, 35.700, 35.725, 35.750, 35.775,
           35.800, 35.825, 35.850, 35.875, 35.900, 35.925, 35.950, 35.975,
           36.000, 36.025, 36.050, 36.075, 36.100, 36.125, 36.150, 36.175,
           36.200, 36.225, 36.250, 36.275, 36.300, 36.325, 36.350, 36.375,
           36.400, 36.425, 36.450, 36.475, 36.500, 36.525, 36.550, 36.575,
           36.600, 36.625, 36.650, 36.675, 36.700, 36.725, 36.750, 36.775,
           36.800, 36.825, 36.850, 36.875, 36.900, 36.925, 36.950, 36.975,
           37.000,
  LAYER_nb=3,
  layers_kref=30,
 &
