# Packages (lines beginning "#" are comments)
 &PACKAGES
 useGMRedi=.TRUE.,
#-------------------------------------------------------------------------------
# Set to .TRUE. to use biogeochemistry.
 usePTRACERS=.FALSE.,
 useGCHEM=.FALSE.,
#-------------------------------------------------------------------------------
 useMNC=.TRUE.,
 useDiagnostics=.TRUE.,
 useLayers=.TRUE.,
 &
