# Layers parameters.
 &LAYERS_PARM01
   useBOLUS=.TRUE.,
   layers_G=1031.000, 1031.025, 1031.050, 1031.075, 1031.100, 1031.125, 1031.150, 1031.175,
    1031.200, 1031.225, 1031.250, 1031.275, 1031.300, 1031.325, 1031.350, 1031.375,
    1031.400, 1031.425, 1031.450, 1031.475, 1031.500, 1031.525, 1031.550, 1031.575,
    1031.600, 1031.625, 1031.650, 1031.675, 1031.700, 1031.725, 1031.750, 1031.775,
    1031.800, 1031.825, 1031.850, 1031.875, 1031.900, 1031.925, 1031.950, 1031.975,
    1032.000, 1032.025, 1032.050, 1032.075, 1032.100, 1032.125, 1032.150, 1032.175,
    1032.200, 1032.225, 1032.250, 1032.275, 1032.300, 1032.325, 1032.350, 1032.375,
    1032.400, 1032.425, 1032.450, 1032.475, 1032.500, 1032.525, 1032.550, 1032.575,
    1032.600, 1032.625, 1032.650, 1032.675, 1032.700, 1032.725, 1032.750, 1032.775,
    1032.800, 1032.825, 1032.850, 1032.875, 1032.900, 1032.925, 1032.950, 1032.975,
    1033.000, 1033.025, 1033.050, 1033.075, 1033.100, 1033.125, 1033.150, 1033.175,
    1033.200, 1033.225, 1033.250, 1033.275, 1033.300, 1033.325, 1033.350, 1033.375,
    1033.400, 1033.425, 1033.450, 1033.475, 1033.500, 1033.525, 1033.550, 1033.575,
    1033.600, 1033.625, 1033.650, 1033.675, 1033.700, 1033.725, 1033.750, 1033.775,
    1033.800, 1033.825, 1033.850, 1033.875, 1033.900, 1033.925, 1033.950, 1033.975,
    1034.000, 1034.025, 1034.050, 1034.075, 1034.100, 1034.125, 1034.150, 1034.175,
    1034.200, 1034.225, 1034.250, 1034.275, 1034.300, 1034.325, 1034.350, 1034.375,
    1034.400, 1034.425, 1034.450, 1034.475, 1034.500, 1034.525, 1034.550, 1034.575,
    1034.600, 1034.625, 1034.650, 1034.675, 1034.700, 1034.725, 1034.750, 1034.775,
    1034.800, 1034.825, 1034.850, 1034.875, 1034.900, 1034.925, 1034.950, 1034.975,
    1035.000, 1035.025, 1035.050, 1035.075, 1035.100, 1035.125, 1035.150, 1035.175,
    1035.200, 1035.225, 1035.250, 1035.275, 1035.300, 1035.325, 1035.350, 1035.375,
    1035.400, 1035.425, 1035.450, 1035.475, 1035.500, 1035.525, 1035.550, 1035.575,
    1035.600, 1035.625, 1035.650, 1035.675, 1035.700, 1035.725, 1035.750, 1035.775,
    1035.800, 1035.825, 1035.850, 1035.875, 1035.900, 1035.925, 1035.950, 1035.975,
    1036.000, 1036.025, 1036.050, 1036.075, 1036.100, 1036.125, 1036.150, 1036.175,
    1036.200, 1036.225, 1036.250, 1036.275, 1036.300, 1036.325, 1036.350, 1036.375,
    1036.400, 1036.425, 1036.450, 1036.475, 1036.500, 1036.525, 1036.550, 1036.575,
    1036.600, 1036.625, 1036.650, 1036.675, 1036.700, 1036.725, 1036.750, 1036.775,
    1036.800, 1036.825, 1036.850, 1036.875, 1036.900, 1036.925, 1036.950, 1036.975,
    1037.000,
  LAYER_nb=3,
  layers_kref=30,
 &
 	